* NGSPICE file created from RAM32.ext - technology: sky130A

* Black-box entry subcircuit for sky130_fd_sc_hd__ebufn_2 abstract view
.subckt sky130_fd_sc_hd__ebufn_2 A TE_B VGND VNB VPB VPWR Z
.ends

* Black-box entry subcircuit for sky130_fd_sc_hd__tapvpwrvgnd_1 abstract view
.subckt sky130_fd_sc_hd__tapvpwrvgnd_1 VGND VPWR
.ends

* Black-box entry subcircuit for sky130_fd_sc_hd__and2_1 abstract view
.subckt sky130_fd_sc_hd__and2_1 A B VGND VNB VPB VPWR X
.ends

* Black-box entry subcircuit for sky130_fd_sc_hd__dlxtp_1 abstract view
.subckt sky130_fd_sc_hd__dlxtp_1 D GATE VGND VNB VPB VPWR Q
.ends

* Black-box entry subcircuit for sky130_fd_sc_hd__inv_1 abstract view
.subckt sky130_fd_sc_hd__inv_1 A VGND VNB VPB VPWR Y
.ends

* Black-box entry subcircuit for sky130_fd_sc_hd__diode_2 abstract view
.subckt sky130_fd_sc_hd__diode_2 DIODE VGND VNB VPB VPWR
.ends

* Black-box entry subcircuit for sky130_fd_sc_hd__decap_12 abstract view
.subckt sky130_fd_sc_hd__decap_12 VGND VNB VPB VPWR
.ends

* Black-box entry subcircuit for sky130_fd_sc_hd__clkbuf_2 abstract view
.subckt sky130_fd_sc_hd__clkbuf_2 A VGND VNB VPB VPWR X
.ends

* Black-box entry subcircuit for sky130_fd_sc_hd__decap_3 abstract view
.subckt sky130_fd_sc_hd__decap_3 VGND VNB VPB VPWR
.ends

* Black-box entry subcircuit for sky130_fd_sc_hd__dlclkp_1 abstract view
.subckt sky130_fd_sc_hd__dlclkp_1 CLK GATE VGND VNB VPB VPWR GCLK
.ends

* Black-box entry subcircuit for sky130_fd_sc_hd__dfxtp_1 abstract view
.subckt sky130_fd_sc_hd__dfxtp_1 CLK D VGND VNB VPB VPWR Q
.ends

* Black-box entry subcircuit for sky130_fd_sc_hd__decap_6 abstract view
.subckt sky130_fd_sc_hd__decap_6 VGND VNB VPB VPWR
.ends

* Black-box entry subcircuit for sky130_fd_sc_hd__fill_2 abstract view
.subckt sky130_fd_sc_hd__fill_2 VGND VNB VPB VPWR
.ends

* Black-box entry subcircuit for sky130_fd_sc_hd__and4bb_2 abstract view
.subckt sky130_fd_sc_hd__and4bb_2 A_N B_N C D VGND VNB VPB VPWR X
.ends

* Black-box entry subcircuit for sky130_fd_sc_hd__clkbuf_4 abstract view
.subckt sky130_fd_sc_hd__clkbuf_4 A VGND VNB VPB VPWR X
.ends

* Black-box entry subcircuit for sky130_fd_sc_hd__and4b_2 abstract view
.subckt sky130_fd_sc_hd__and4b_2 A_N B C D VGND VNB VPB VPWR X
.ends

* Black-box entry subcircuit for sky130_fd_sc_hd__mux2_1 abstract view
.subckt sky130_fd_sc_hd__mux2_1 A0 A1 S VGND VNB VPB VPWR X
.ends

* Black-box entry subcircuit for sky130_fd_sc_hd__clkbuf_16 abstract view
.subckt sky130_fd_sc_hd__clkbuf_16 A VGND VNB VPB VPWR X
.ends

* Black-box entry subcircuit for sky130_fd_sc_hd__decap_8 abstract view
.subckt sky130_fd_sc_hd__decap_8 VGND VNB VPB VPWR
.ends

* Black-box entry subcircuit for sky130_fd_sc_hd__and4_2 abstract view
.subckt sky130_fd_sc_hd__and4_2 A B C D VGND VNB VPB VPWR X
.ends

* Black-box entry subcircuit for sky130_fd_sc_hd__decap_4 abstract view
.subckt sky130_fd_sc_hd__decap_4 VGND VNB VPB VPWR
.ends

* Black-box entry subcircuit for sky130_fd_sc_hd__and2b_2 abstract view
.subckt sky130_fd_sc_hd__and2b_2 A_N B VGND VNB VPB VPWR X
.ends

* Black-box entry subcircuit for sky130_fd_sc_hd__and2_2 abstract view
.subckt sky130_fd_sc_hd__and2_2 A B VGND VNB VPB VPWR X
.ends

* Black-box entry subcircuit for sky130_fd_sc_hd__nor4b_2 abstract view
.subckt sky130_fd_sc_hd__nor4b_2 A B C D_N VGND VNB VPB VPWR Y
.ends

* Black-box entry subcircuit for sky130_fd_sc_hd__conb_1 abstract view
.subckt sky130_fd_sc_hd__conb_1 VGND VNB VPB VPWR HI LO
.ends

.subckt RAM32 A0[0] A0[1] A0[2] A0[3] A0[4] CLK Di0[0] Di0[10] Di0[11] Di0[12] Di0[13]
+ Di0[14] Di0[15] Di0[16] Di0[17] Di0[18] Di0[19] Di0[1] Di0[20] Di0[21] Di0[22] Di0[23]
+ Di0[24] Di0[25] Di0[26] Di0[27] Di0[28] Di0[29] Di0[2] Di0[30] Di0[31] Di0[3] Di0[4]
+ Di0[5] Di0[6] Di0[7] Di0[8] Di0[9] Do0[0] Do0[10] Do0[11] Do0[12] Do0[13] Do0[14]
+ Do0[15] Do0[16] Do0[17] Do0[18] Do0[19] Do0[1] Do0[20] Do0[21] Do0[22] Do0[23] Do0[24]
+ Do0[25] Do0[26] Do0[27] Do0[28] Do0[29] Do0[2] Do0[30] Do0[31] Do0[3] Do0[4] Do0[5]
+ Do0[6] Do0[7] Do0[8] Do0[9] EN0 VGND VPWR WE0[0] WE0[1] WE0[2] WE0[3]
XSLICE_16\[1\].RAM16.SLICE\[0\].RAM8.WORD\[2\].W.BYTE\[0\].B.BIT\[1\].OBUF0 SLICE_16\[1\].RAM16.SLICE\[0\].RAM8.WORD\[2\].W.BYTE\[0\].B.Q_WIRE\[1\]
+ SLICE_16\[1\].RAM16.SLICE\[0\].RAM8.WORD\[2\].W.BYTE\[0\].B.SEL0_B VGND VGND VPWR
+ VPWR SLICE_16\[1\].RAM16.BYTE\[0\].FLOATBUF0\[1\].Z sky130_fd_sc_hd__ebufn_2
Xtap_24_35 VGND VPWR sky130_fd_sc_hd__tapvpwrvgnd_1
Xtap_24_24 VGND VPWR sky130_fd_sc_hd__tapvpwrvgnd_1
Xtap_24_13 VGND VPWR sky130_fd_sc_hd__tapvpwrvgnd_1
XSLICE_16\[1\].RAM16.SLICE\[0\].RAM8.WORD\[1\].W.BYTE\[0\].B.CGAND SLICE_16\[1\].RAM16.SLICE\[0\].RAM8.WORD\[1\].W.BYTE\[0\].B.SEL0
+ SLICE_16\[1\].RAM16.SLICE\[0\].RAM8.WE0_buf\[0\] VGND VGND VPWR VPWR SLICE_16\[1\].RAM16.SLICE\[0\].RAM8.WORD\[1\].W.BYTE\[0\].B.WE0_WIRE
+ sky130_fd_sc_hd__and2_1
Xtap_3_8 VGND VPWR sky130_fd_sc_hd__tapvpwrvgnd_1
XSLICE_16\[0\].RAM16.SLICE\[0\].RAM8.WORD\[2\].W.BYTE\[2\].B.BIT\[4\].genblk1.STORAGE
+ DIBUF\[20\].X SLICE_16\[0\].RAM16.SLICE\[0\].RAM8.WORD\[2\].W.BYTE\[2\].B.GCLK VGND
+ VGND VPWR VPWR SLICE_16\[0\].RAM16.SLICE\[0\].RAM8.WORD\[2\].W.BYTE\[2\].B.Q_WIRE\[4\]
+ sky130_fd_sc_hd__dlxtp_1
Xtap_40_23 VGND VPWR sky130_fd_sc_hd__tapvpwrvgnd_1
Xtap_40_12 VGND VPWR sky130_fd_sc_hd__tapvpwrvgnd_1
XSLICE_16\[1\].RAM16.SLICE\[0\].RAM8.WORD\[6\].W.BYTE\[3\].B.BIT\[4\].OBUF0 SLICE_16\[1\].RAM16.SLICE\[0\].RAM8.WORD\[6\].W.BYTE\[3\].B.Q_WIRE\[4\]
+ SLICE_16\[1\].RAM16.SLICE\[0\].RAM8.WORD\[6\].W.BYTE\[3\].B.SEL0_B VGND VGND VPWR
+ VPWR SLICE_16\[1\].RAM16.BYTE\[3\].FLOATBUF0\[28\].Z sky130_fd_sc_hd__ebufn_2
XSLICE_16\[0\].RAM16.SLICE\[1\].RAM8.WORD\[4\].W.BYTE\[2\].B.genblk1.CLKINV SLICE_16\[0\].RAM16.SLICE\[1\].RAM8.WORD\[4\].W.BYTE\[0\].B.CLK
+ VGND VGND VPWR VPWR SLICE_16\[0\].RAM16.SLICE\[1\].RAM8.WORD\[4\].W.BYTE\[2\].B.CLK_B
+ sky130_fd_sc_hd__inv_1
XSLICE_16\[0\].RAM16.SLICE\[0\].RAM8.WORD\[0\].W.BYTE\[0\].B.BIT\[3\].genblk1.STORAGE
+ DIBUF\[3\].X SLICE_16\[0\].RAM16.SLICE\[0\].RAM8.WORD\[0\].W.BYTE\[0\].B.GCLK VGND
+ VGND VPWR VPWR SLICE_16\[0\].RAM16.SLICE\[0\].RAM8.WORD\[0\].W.BYTE\[0\].B.Q_WIRE\[3\]
+ sky130_fd_sc_hd__dlxtp_1
XSLICE_16\[1\].RAM16.Do0_REG.OUTREG_BYTE\[3\].DIODE\[5\] SLICE_16\[1\].RAM16.BYTE\[3\].FLOATBUF0\[29\].Z
+ VGND VGND VPWR VPWR sky130_fd_sc_hd__diode_2
Xfill_0_14 VGND VGND VPWR VPWR sky130_fd_sc_hd__decap_12
XSLICE_16\[1\].RAM16.SLICE\[0\].RAM8.WORD\[5\].W.BYTE\[2\].B.DIODE_CLK SLICE_16\[1\].RAM16.SLICE\[0\].RAM8.WORD\[5\].W.BYTE\[0\].B.CLK
+ VGND VGND VPWR VPWR sky130_fd_sc_hd__diode_2
Xfill_43_3 VGND VPWR sky130_fd_sc_hd__tapvpwrvgnd_1
XSLICE_16\[0\].RAM16.SLICE\[1\].RAM8.WORD\[1\].W.SEL0BUF SLICE_16\[0\].RAM16.SLICE\[1\].RAM8.DEC0.SEL\[1\]
+ VGND VGND VPWR VPWR SLICE_16\[0\].RAM16.SLICE\[1\].RAM8.WORD\[1\].W.BYTE\[0\].B.SEL0
+ sky130_fd_sc_hd__clkbuf_2
Xfill_46_121 VGND VGND VPWR VPWR sky130_fd_sc_hd__decap_12
Xfill_46_110 VGND VGND VPWR VPWR sky130_fd_sc_hd__decap_12
XSLICE_16\[1\].RAM16.SLICE\[1\].RAM8.WORD\[7\].W.BYTE\[3\].B.BIT\[2\].genblk1.STORAGE
+ DIBUF\[26\].X SLICE_16\[1\].RAM16.SLICE\[1\].RAM8.WORD\[7\].W.BYTE\[3\].B.GCLK VGND
+ VGND VPWR VPWR SLICE_16\[1\].RAM16.SLICE\[1\].RAM8.WORD\[7\].W.BYTE\[3\].B.Q_WIRE\[2\]
+ sky130_fd_sc_hd__dlxtp_1
Xfill_36_2 VGND VGND VPWR VPWR sky130_fd_sc_hd__decap_3
Xfill_29_1 VGND VGND VPWR VPWR sky130_fd_sc_hd__decap_3
XSLICE_16\[1\].RAM16.SLICE\[0\].RAM8.WORD\[5\].W.BYTE\[1\].B.BIT\[1\].OBUF0 SLICE_16\[1\].RAM16.SLICE\[0\].RAM8.WORD\[5\].W.BYTE\[1\].B.Q_WIRE\[1\]
+ SLICE_16\[1\].RAM16.SLICE\[0\].RAM8.WORD\[5\].W.BYTE\[1\].B.SEL0_B VGND VGND VPWR
+ VPWR SLICE_16\[1\].RAM16.BYTE\[1\].FLOATBUF0\[9\].Z sky130_fd_sc_hd__ebufn_2
XSLICE_16\[0\].RAM16.SLICE\[0\].RAM8.WORD\[3\].W.BYTE\[2\].B.CGAND SLICE_16\[0\].RAM16.SLICE\[0\].RAM8.WORD\[3\].W.BYTE\[0\].B.SEL0
+ SLICE_16\[0\].RAM16.SLICE\[0\].RAM8.WE0_buf\[2\] VGND VGND VPWR VPWR SLICE_16\[0\].RAM16.SLICE\[0\].RAM8.WORD\[3\].W.BYTE\[2\].B.WE0_WIRE
+ sky130_fd_sc_hd__and2_1
XSLICE_16\[0\].RAM16.SLICE\[1\].RAM8.WORD\[2\].W.BYTE\[3\].B.BIT\[0\].OBUF0 SLICE_16\[0\].RAM16.SLICE\[1\].RAM8.WORD\[2\].W.BYTE\[3\].B.Q_WIRE\[0\]
+ SLICE_16\[0\].RAM16.SLICE\[1\].RAM8.WORD\[2\].W.BYTE\[3\].B.SEL0_B VGND VGND VPWR
+ VPWR SLICE_16\[0\].RAM16.BYTE\[3\].FLOATBUF0\[24\].Z sky130_fd_sc_hd__ebufn_2
Xfill_46_143 VGND VPWR sky130_fd_sc_hd__tapvpwrvgnd_1
Xfill_46_132 VGND VPWR sky130_fd_sc_hd__tapvpwrvgnd_1
XSLICE_16\[1\].RAM16.SLICE\[1\].RAM8.WORD\[5\].W.BYTE\[1\].B.BIT\[1\].genblk1.STORAGE
+ DIBUF\[9\].X SLICE_16\[1\].RAM16.SLICE\[1\].RAM8.WORD\[5\].W.BYTE\[1\].B.GCLK VGND
+ VGND VPWR VPWR SLICE_16\[1\].RAM16.SLICE\[1\].RAM8.WORD\[5\].W.BYTE\[1\].B.Q_WIRE\[1\]
+ sky130_fd_sc_hd__dlxtp_1
XSLICE_16\[0\].RAM16.SLICE\[1\].RAM8.WORD\[7\].W.BYTE\[3\].B.genblk1.CLKINV SLICE_16\[0\].RAM16.SLICE\[1\].RAM8.WORD\[7\].W.BYTE\[0\].B.CLK
+ VGND VGND VPWR VPWR SLICE_16\[0\].RAM16.SLICE\[1\].RAM8.WORD\[7\].W.BYTE\[3\].B.CLK_B
+ sky130_fd_sc_hd__inv_1
Xtap_10_15 VGND VPWR sky130_fd_sc_hd__tapvpwrvgnd_1
Xtap_10_26 VGND VPWR sky130_fd_sc_hd__tapvpwrvgnd_1
XSLICE_16\[0\].RAM16.SLICE\[1\].RAM8.WORD\[2\].W.BYTE\[2\].B.DIODE_CLK SLICE_16\[0\].RAM16.SLICE\[1\].RAM8.WORD\[2\].W.BYTE\[0\].B.CLK
+ VGND VGND VPWR VPWR sky130_fd_sc_hd__diode_2
XSLICE_16\[1\].RAM16.SLICE\[0\].RAM8.WORD\[1\].W.BYTE\[3\].B.SEL0INV SLICE_16\[1\].RAM16.SLICE\[0\].RAM8.WORD\[1\].W.BYTE\[0\].B.SEL0
+ VGND VGND VPWR VPWR SLICE_16\[1\].RAM16.SLICE\[0\].RAM8.WORD\[1\].W.BYTE\[3\].B.SEL0_B
+ sky130_fd_sc_hd__inv_1
XSLICE_16\[0\].RAM16.SLICE\[0\].RAM8.WORD\[7\].W.BYTE\[0\].B.BIT\[2\].OBUF0 SLICE_16\[0\].RAM16.SLICE\[0\].RAM8.WORD\[7\].W.BYTE\[0\].B.Q_WIRE\[2\]
+ SLICE_16\[0\].RAM16.SLICE\[0\].RAM8.WORD\[7\].W.BYTE\[0\].B.SEL0_B VGND VGND VPWR
+ VPWR SLICE_16\[0\].RAM16.BYTE\[0\].FLOATBUF0\[2\].Z sky130_fd_sc_hd__ebufn_2
XSLICE_16\[0\].RAM16.SLICE\[0\].RAM8.WORD\[7\].W.BYTE\[1\].B.SEL0INV SLICE_16\[0\].RAM16.SLICE\[0\].RAM8.WORD\[7\].W.BYTE\[0\].B.SEL0
+ VGND VGND VPWR VPWR SLICE_16\[0\].RAM16.SLICE\[0\].RAM8.WORD\[7\].W.BYTE\[1\].B.SEL0_B
+ sky130_fd_sc_hd__inv_1
Xtap_35_34 VGND VPWR sky130_fd_sc_hd__tapvpwrvgnd_1
Xtap_35_23 VGND VPWR sky130_fd_sc_hd__tapvpwrvgnd_1
Xtap_35_12 VGND VPWR sky130_fd_sc_hd__tapvpwrvgnd_1
Xtap_1_5 VGND VPWR sky130_fd_sc_hd__tapvpwrvgnd_1
XSLICE_16\[0\].RAM16.SLICE\[0\].RAM8.WORD\[3\].W.BYTE\[0\].B.genblk1.CG SLICE_16\[0\].RAM16.SLICE\[0\].RAM8.WORD\[3\].W.BYTE\[0\].B.CLK_B
+ SLICE_16\[0\].RAM16.SLICE\[0\].RAM8.WORD\[3\].W.BYTE\[0\].B.WE0_WIRE VGND VGND VPWR
+ VPWR SLICE_16\[0\].RAM16.SLICE\[0\].RAM8.WORD\[3\].W.BYTE\[0\].B.GCLK sky130_fd_sc_hd__dlclkp_1
XSLICE_16\[1\].RAM16.SLICE\[0\].RAM8.WORD\[2\].W.BYTE\[1\].B.BIT\[7\].genblk1.STORAGE
+ DIBUF\[15\].X SLICE_16\[1\].RAM16.SLICE\[0\].RAM8.WORD\[2\].W.BYTE\[1\].B.GCLK VGND
+ VGND VPWR VPWR SLICE_16\[1\].RAM16.SLICE\[0\].RAM8.WORD\[2\].W.BYTE\[1\].B.Q_WIRE\[7\]
+ sky130_fd_sc_hd__dlxtp_1
XSLICE_16\[1\].RAM16.Do0_REG.OUTREG_BYTE\[2\].Do_FF\[6\] SLICE_16\[1\].RAM16.Do0_REG.CLKBUF\[2\]
+ SLICE_16\[1\].RAM16.BYTE\[2\].FLOATBUF0\[22\].Z VGND VGND VPWR VPWR Do0MUX.A1\[22\]
+ sky130_fd_sc_hd__dfxtp_1
XSLICE_16\[1\].RAM16.SLICE\[0\].RAM8.WORD\[5\].W.BYTE\[3\].B.genblk1.CG SLICE_16\[1\].RAM16.SLICE\[0\].RAM8.WORD\[5\].W.BYTE\[3\].B.CLK_B
+ SLICE_16\[1\].RAM16.SLICE\[0\].RAM8.WORD\[5\].W.BYTE\[3\].B.WE0_WIRE VGND VGND VPWR
+ VPWR SLICE_16\[1\].RAM16.SLICE\[0\].RAM8.WORD\[5\].W.BYTE\[3\].B.GCLK sky130_fd_sc_hd__dlclkp_1
XSLICE_16\[0\].RAM16.SLICE\[0\].RAM8.WORD\[5\].W.BYTE\[3\].B.BIT\[4\].genblk1.STORAGE
+ DIBUF\[28\].X SLICE_16\[0\].RAM16.SLICE\[0\].RAM8.WORD\[5\].W.BYTE\[3\].B.GCLK VGND
+ VGND VPWR VPWR SLICE_16\[0\].RAM16.SLICE\[0\].RAM8.WORD\[5\].W.BYTE\[3\].B.Q_WIRE\[4\]
+ sky130_fd_sc_hd__dlxtp_1
XSLICE_16\[1\].RAM16.SLICE\[1\].RAM8.WORD\[0\].W.BYTE\[2\].B.BIT\[4\].OBUF0 SLICE_16\[1\].RAM16.SLICE\[1\].RAM8.WORD\[0\].W.BYTE\[2\].B.Q_WIRE\[4\]
+ SLICE_16\[1\].RAM16.SLICE\[1\].RAM8.WORD\[0\].W.BYTE\[2\].B.SEL0_B VGND VGND VPWR
+ VPWR SLICE_16\[1\].RAM16.BYTE\[2\].FLOATBUF0\[20\].Z sky130_fd_sc_hd__ebufn_2
Xfill_22_8 VGND VGND VPWR VPWR sky130_fd_sc_hd__decap_12
Xfill_15_7 VGND VGND VPWR VPWR sky130_fd_sc_hd__decap_6
XSLICE_16\[0\].RAM16.SLICE\[0\].RAM8.WORD\[3\].W.BYTE\[1\].B.BIT\[3\].genblk1.STORAGE
+ DIBUF\[11\].X SLICE_16\[0\].RAM16.SLICE\[0\].RAM8.WORD\[3\].W.BYTE\[1\].B.GCLK VGND
+ VGND VPWR VPWR SLICE_16\[0\].RAM16.SLICE\[0\].RAM8.WORD\[3\].W.BYTE\[1\].B.Q_WIRE\[3\]
+ sky130_fd_sc_hd__dlxtp_1
Xfill_43_102 VGND VGND VPWR VPWR sky130_fd_sc_hd__decap_3
Xtap_2_29 VGND VPWR sky130_fd_sc_hd__tapvpwrvgnd_1
Xtap_2_18 VGND VPWR sky130_fd_sc_hd__tapvpwrvgnd_1
XSLICE_16\[0\].RAM16.SLICE\[1\].RAM8.WORD\[2\].W.BYTE\[1\].B.BIT\[5\].OBUF0 SLICE_16\[0\].RAM16.SLICE\[1\].RAM8.WORD\[2\].W.BYTE\[1\].B.Q_WIRE\[5\]
+ SLICE_16\[0\].RAM16.SLICE\[1\].RAM8.WORD\[2\].W.BYTE\[1\].B.SEL0_B VGND VGND VPWR
+ VPWR SLICE_16\[0\].RAM16.BYTE\[1\].FLOATBUF0\[13\].Z sky130_fd_sc_hd__ebufn_2
Xfill_41_0 VGND VPWR sky130_fd_sc_hd__tapvpwrvgnd_1
XSLICE_16\[1\].RAM16.DIODE_A0\[0\].__cell__ A0BUF\[0\].X VGND VGND VPWR VPWR sky130_fd_sc_hd__diode_2
XSLICE_16\[0\].RAM16.SLICE\[1\].RAM8.WORD\[4\].W.BYTE\[1\].B.CGAND SLICE_16\[0\].RAM16.SLICE\[1\].RAM8.WORD\[4\].W.BYTE\[0\].B.SEL0
+ SLICE_16\[0\].RAM16.SLICE\[1\].RAM8.WE0_buf\[1\] VGND VGND VPWR VPWR SLICE_16\[0\].RAM16.SLICE\[1\].RAM8.WORD\[4\].W.BYTE\[1\].B.WE0_WIRE
+ sky130_fd_sc_hd__and2_1
XSLICE_16\[0\].RAM16.BYTE\[2\].FLOATBUF0\[21\].__cell__ SLICE_16\[0\].RAM16.BYTE\[2\].FLOATBUF0\[16\].A
+ SLICE_16\[0\].RAM16.BYTE\[2\].FLOATBUF0\[16\].TE_B VGND VGND VPWR VPWR SLICE_16\[0\].RAM16.BYTE\[2\].FLOATBUF0\[21\].Z
+ sky130_fd_sc_hd__ebufn_2
XSLICE_16\[0\].RAM16.SLICE\[0\].RAM8.WORD\[1\].W.BYTE\[3\].B.BIT\[7\].OBUF0 SLICE_16\[0\].RAM16.SLICE\[0\].RAM8.WORD\[1\].W.BYTE\[3\].B.Q_WIRE\[7\]
+ SLICE_16\[0\].RAM16.SLICE\[0\].RAM8.WORD\[1\].W.BYTE\[3\].B.SEL0_B VGND VGND VPWR
+ VPWR SLICE_16\[0\].RAM16.BYTE\[3\].FLOATBUF0\[31\].Z sky130_fd_sc_hd__ebufn_2
XSLICE_16\[1\].RAM16.SLICE\[1\].RAM8.WORD\[6\].W.BYTE\[0\].B.BIT\[0\].genblk1.STORAGE
+ DIBUF\[0\].X SLICE_16\[1\].RAM16.SLICE\[1\].RAM8.WORD\[6\].W.BYTE\[0\].B.GCLK VGND
+ VGND VPWR VPWR SLICE_16\[1\].RAM16.SLICE\[1\].RAM8.WORD\[6\].W.BYTE\[0\].B.Q_WIRE\[0\]
+ sky130_fd_sc_hd__dlxtp_1
XSLICE_16\[1\].RAM16.SLICE\[1\].RAM8.WORD\[3\].W.BYTE\[3\].B.BIT\[4\].OBUF0 SLICE_16\[1\].RAM16.SLICE\[1\].RAM8.WORD\[3\].W.BYTE\[3\].B.Q_WIRE\[4\]
+ SLICE_16\[1\].RAM16.SLICE\[1\].RAM8.WORD\[3\].W.BYTE\[3\].B.SEL0_B VGND VGND VPWR
+ VPWR SLICE_16\[1\].RAM16.BYTE\[3\].FLOATBUF0\[28\].Z sky130_fd_sc_hd__ebufn_2
XSLICE_16\[1\].RAM16.SLICE\[1\].RAM8.WORD\[2\].W.BYTE\[3\].B.BIT\[2\].genblk1.STORAGE
+ DIBUF\[26\].X SLICE_16\[1\].RAM16.SLICE\[1\].RAM8.WORD\[2\].W.BYTE\[3\].B.GCLK VGND
+ VGND VPWR VPWR SLICE_16\[1\].RAM16.SLICE\[1\].RAM8.WORD\[2\].W.BYTE\[3\].B.Q_WIRE\[2\]
+ sky130_fd_sc_hd__dlxtp_1
XSLICE_16\[1\].RAM16.SLICE\[1\].RAM8.WORD\[0\].W.BYTE\[1\].B.BIT\[1\].genblk1.STORAGE
+ DIBUF\[9\].X SLICE_16\[1\].RAM16.SLICE\[1\].RAM8.WORD\[0\].W.BYTE\[1\].B.GCLK VGND
+ VGND VPWR VPWR SLICE_16\[1\].RAM16.SLICE\[1\].RAM8.WORD\[0\].W.BYTE\[1\].B.Q_WIRE\[1\]
+ sky130_fd_sc_hd__dlxtp_1
Xfill_18_22 VGND VGND VPWR VPWR sky130_fd_sc_hd__decap_12
Xfill_18_11 VGND VGND VPWR VPWR sky130_fd_sc_hd__decap_12
XSLICE_16\[0\].RAM16.SLICE\[0\].RAM8.DEC0.ABUF\[0\] SLICE_16\[0\].RAM16.A0BUF\[0\].X
+ VGND VGND VPWR VPWR SLICE_16\[0\].RAM16.SLICE\[0\].RAM8.DEC0.A_buf\[0\] sky130_fd_sc_hd__clkbuf_2
XSLICE_16\[1\].RAM16.SLICE\[1\].RAM8.WORD\[7\].W.BYTE\[2\].B.DIODE_CLK SLICE_16\[1\].RAM16.SLICE\[1\].RAM8.WORD\[7\].W.BYTE\[0\].B.CLK
+ VGND VGND VPWR VPWR sky130_fd_sc_hd__diode_2
XSLICE_16\[0\].RAM16.SLICE\[1\].RAM8.WORD\[5\].W.BYTE\[2\].B.BIT\[5\].OBUF0 SLICE_16\[0\].RAM16.SLICE\[1\].RAM8.WORD\[5\].W.BYTE\[2\].B.Q_WIRE\[5\]
+ SLICE_16\[0\].RAM16.SLICE\[1\].RAM8.WORD\[5\].W.BYTE\[2\].B.SEL0_B VGND VGND VPWR
+ VPWR SLICE_16\[0\].RAM16.BYTE\[2\].FLOATBUF0\[21\].Z sky130_fd_sc_hd__ebufn_2
XSLICE_16\[1\].RAM16.SLICE\[0\].RAM8.WORD\[5\].W.BYTE\[2\].B.BIT\[7\].genblk1.STORAGE
+ DIBUF\[23\].X SLICE_16\[1\].RAM16.SLICE\[0\].RAM8.WORD\[5\].W.BYTE\[2\].B.GCLK VGND
+ VGND VPWR VPWR SLICE_16\[1\].RAM16.SLICE\[0\].RAM8.WORD\[5\].W.BYTE\[2\].B.Q_WIRE\[7\]
+ sky130_fd_sc_hd__dlxtp_1
XSLICE_16\[1\].RAM16.SLICE\[0\].RAM8.WORD\[3\].W.BYTE\[0\].B.BIT\[6\].genblk1.STORAGE
+ DIBUF\[6\].X SLICE_16\[1\].RAM16.SLICE\[0\].RAM8.WORD\[3\].W.BYTE\[0\].B.GCLK VGND
+ VGND VPWR VPWR SLICE_16\[1\].RAM16.SLICE\[0\].RAM8.WORD\[3\].W.BYTE\[0\].B.Q_WIRE\[6\]
+ sky130_fd_sc_hd__dlxtp_1
Xfill_20_5 VGND VGND VPWR VPWR sky130_fd_sc_hd__decap_12
Xfill_13_4 VGND VGND VPWR VPWR sky130_fd_sc_hd__fill_2
XSLICE_16\[0\].RAM16.SLICE\[0\].RAM8.WORD\[0\].W.BYTE\[1\].B.BIT\[4\].OBUF0 SLICE_16\[0\].RAM16.SLICE\[0\].RAM8.WORD\[0\].W.BYTE\[1\].B.Q_WIRE\[4\]
+ SLICE_16\[0\].RAM16.SLICE\[0\].RAM8.WORD\[0\].W.BYTE\[1\].B.SEL0_B VGND VGND VPWR
+ VPWR SLICE_16\[0\].RAM16.BYTE\[1\].FLOATBUF0\[12\].Z sky130_fd_sc_hd__ebufn_2
XSLICE_16\[1\].RAM16.DIODE_CLK.__cell__ CLK VGND VGND VPWR VPWR sky130_fd_sc_hd__diode_2
XSLICE_16\[1\].RAM16.SLICE\[1\].RAM8.WORD\[2\].W.BYTE\[1\].B.BIT\[1\].OBUF0 SLICE_16\[1\].RAM16.SLICE\[1\].RAM8.WORD\[2\].W.BYTE\[1\].B.Q_WIRE\[1\]
+ SLICE_16\[1\].RAM16.SLICE\[1\].RAM8.WORD\[2\].W.BYTE\[1\].B.SEL0_B VGND VGND VPWR
+ VPWR SLICE_16\[1\].RAM16.BYTE\[1\].FLOATBUF0\[9\].Z sky130_fd_sc_hd__ebufn_2
XSLICE_16\[0\].RAM16.SLICE\[1\].RAM8.WORD\[5\].W.BYTE\[0\].B.BIT\[7\].genblk1.STORAGE
+ DIBUF\[7\].X SLICE_16\[0\].RAM16.SLICE\[1\].RAM8.WORD\[5\].W.BYTE\[0\].B.GCLK VGND
+ VGND VPWR VPWR SLICE_16\[0\].RAM16.SLICE\[1\].RAM8.WORD\[5\].W.BYTE\[0\].B.Q_WIRE\[7\]
+ sky130_fd_sc_hd__dlxtp_1
XSLICE_16\[0\].RAM16.Do0_REG.OUTREG_BYTE\[1\].DIODE\[6\] SLICE_16\[0\].RAM16.BYTE\[1\].FLOATBUF0\[14\].Z
+ VGND VGND VPWR VPWR sky130_fd_sc_hd__diode_2
XSLICE_16\[0\].RAM16.SLICE\[0\].RAM8.WORD\[0\].W.BYTE\[3\].B.BIT\[4\].genblk1.STORAGE
+ DIBUF\[28\].X SLICE_16\[0\].RAM16.SLICE\[0\].RAM8.WORD\[0\].W.BYTE\[3\].B.GCLK VGND
+ VGND VPWR VPWR SLICE_16\[0\].RAM16.SLICE\[0\].RAM8.WORD\[0\].W.BYTE\[3\].B.Q_WIRE\[4\]
+ sky130_fd_sc_hd__dlxtp_1
XSLICE_16\[0\].RAM16.SLICE\[0\].RAM8.WORD\[6\].W.BYTE\[2\].B.BIT\[3\].genblk1.STORAGE
+ DIBUF\[19\].X SLICE_16\[0\].RAM16.SLICE\[0\].RAM8.WORD\[6\].W.BYTE\[2\].B.GCLK VGND
+ VGND VPWR VPWR SLICE_16\[0\].RAM16.SLICE\[0\].RAM8.WORD\[6\].W.BYTE\[2\].B.Q_WIRE\[3\]
+ sky130_fd_sc_hd__dlxtp_1
XSLICE_16\[1\].RAM16.SLICE\[0\].RAM8.DEC0.AND1 SLICE_16\[1\].RAM16.SLICE\[0\].RAM8.DEC0.A_buf\[2\]
+ SLICE_16\[1\].RAM16.SLICE\[0\].RAM8.DEC0.A_buf\[1\] SLICE_16\[1\].RAM16.SLICE\[0\].RAM8.DEC0.A_buf\[0\]
+ SLICE_16\[1\].RAM16.SLICE\[0\].RAM8.DEC0.EN_buf VGND VGND VPWR VPWR SLICE_16\[1\].RAM16.SLICE\[0\].RAM8.DEC0.SEL\[1\]
+ sky130_fd_sc_hd__and4bb_2
Xtap_16_25 VGND VPWR sky130_fd_sc_hd__tapvpwrvgnd_1
Xtap_16_14 VGND VPWR sky130_fd_sc_hd__tapvpwrvgnd_1
XSLICE_16\[0\].RAM16.SLICE\[0\].RAM8.WORD\[4\].W.BYTE\[0\].B.BIT\[2\].genblk1.STORAGE
+ DIBUF\[2\].X SLICE_16\[0\].RAM16.SLICE\[0\].RAM8.WORD\[4\].W.BYTE\[0\].B.GCLK VGND
+ VGND VPWR VPWR SLICE_16\[0\].RAM16.SLICE\[0\].RAM8.WORD\[4\].W.BYTE\[0\].B.Q_WIRE\[2\]
+ sky130_fd_sc_hd__dlxtp_1
Xtap_32_35 VGND VPWR sky130_fd_sc_hd__tapvpwrvgnd_1
Xtap_32_24 VGND VPWR sky130_fd_sc_hd__tapvpwrvgnd_1
Xtap_32_13 VGND VPWR sky130_fd_sc_hd__tapvpwrvgnd_1
XSLICE_16\[1\].RAM16.SLICE\[0\].RAM8.WORD\[5\].W.BYTE\[1\].B.SEL0INV SLICE_16\[1\].RAM16.SLICE\[0\].RAM8.WORD\[5\].W.BYTE\[0\].B.SEL0
+ VGND VGND VPWR VPWR SLICE_16\[1\].RAM16.SLICE\[0\].RAM8.WORD\[5\].W.BYTE\[1\].B.SEL0_B
+ sky130_fd_sc_hd__inv_1
XSLICE_16\[1\].RAM16.SLICE\[0\].RAM8.WORD\[2\].W.BYTE\[0\].B.genblk1.CLKINV SLICE_16\[1\].RAM16.SLICE\[0\].RAM8.WORD\[2\].W.BYTE\[0\].B.CLK
+ VGND VGND VPWR VPWR SLICE_16\[1\].RAM16.SLICE\[0\].RAM8.WORD\[2\].W.BYTE\[0\].B.CLK_B
+ sky130_fd_sc_hd__inv_1
XSLICE_16\[0\].RAM16.SLICE\[1\].RAM8.WORD\[4\].W.BYTE\[0\].B.BIT\[2\].OBUF0 SLICE_16\[0\].RAM16.SLICE\[1\].RAM8.WORD\[4\].W.BYTE\[0\].B.Q_WIRE\[2\]
+ SLICE_16\[0\].RAM16.SLICE\[1\].RAM8.WORD\[4\].W.BYTE\[0\].B.SEL0_B VGND VGND VPWR
+ VPWR SLICE_16\[0\].RAM16.BYTE\[0\].FLOATBUF0\[2\].Z sky130_fd_sc_hd__ebufn_2
Xtap_47_2 VGND VPWR sky130_fd_sc_hd__tapvpwrvgnd_1
XSLICE_16\[1\].RAM16.SLICE\[0\].RAM8.WORD\[1\].W.BYTE\[3\].B.BIT\[3\].OBUF0 SLICE_16\[1\].RAM16.SLICE\[0\].RAM8.WORD\[1\].W.BYTE\[3\].B.Q_WIRE\[3\]
+ SLICE_16\[1\].RAM16.SLICE\[0\].RAM8.WORD\[1\].W.BYTE\[3\].B.SEL0_B VGND VGND VPWR
+ VPWR SLICE_16\[1\].RAM16.BYTE\[3\].FLOATBUF0\[27\].Z sky130_fd_sc_hd__ebufn_2
Xfill_20_78 VGND VPWR sky130_fd_sc_hd__tapvpwrvgnd_1
Xfill_20_67 VGND VGND VPWR VPWR sky130_fd_sc_hd__decap_12
Xfill_20_56 VGND VGND VPWR VPWR sky130_fd_sc_hd__decap_12
Xfill_20_45 VGND VPWR sky130_fd_sc_hd__tapvpwrvgnd_1
Xfill_20_34 VGND VGND VPWR VPWR sky130_fd_sc_hd__decap_12
Xfill_20_23 VGND VGND VPWR VPWR sky130_fd_sc_hd__decap_12
Xfill_20_12 VGND VPWR sky130_fd_sc_hd__tapvpwrvgnd_1
Xfill_20_89 VGND VGND VPWR VPWR sky130_fd_sc_hd__decap_12
Xfill_45_97 VGND VGND VPWR VPWR sky130_fd_sc_hd__decap_12
Xfill_45_86 VGND VGND VPWR VPWR sky130_fd_sc_hd__decap_12
Xfill_45_75 VGND VPWR sky130_fd_sc_hd__tapvpwrvgnd_1
Xfill_45_64 VGND VGND VPWR VPWR sky130_fd_sc_hd__decap_12
Xfill_45_53 VGND VGND VPWR VPWR sky130_fd_sc_hd__decap_12
Xfill_45_42 VGND VPWR sky130_fd_sc_hd__tapvpwrvgnd_1
Xfill_45_31 VGND VGND VPWR VPWR sky130_fd_sc_hd__decap_12
Xfill_45_20 VGND VGND VPWR VPWR sky130_fd_sc_hd__decap_12
XSLICE_16\[0\].RAM16.SLICE\[1\].RAM8.WORD\[7\].W.BYTE\[3\].B.SEL0INV SLICE_16\[0\].RAM16.SLICE\[1\].RAM8.WORD\[7\].W.BYTE\[0\].B.SEL0
+ VGND VGND VPWR VPWR SLICE_16\[0\].RAM16.SLICE\[1\].RAM8.WORD\[7\].W.BYTE\[3\].B.SEL0_B
+ sky130_fd_sc_hd__inv_1
XSLICE_16\[0\].RAM16.SLICE\[0\].RAM8.WORD\[3\].W.BYTE\[2\].B.BIT\[4\].OBUF0 SLICE_16\[0\].RAM16.SLICE\[0\].RAM8.WORD\[3\].W.BYTE\[2\].B.Q_WIRE\[4\]
+ SLICE_16\[0\].RAM16.SLICE\[0\].RAM8.WORD\[3\].W.BYTE\[2\].B.SEL0_B VGND VGND VPWR
+ VPWR SLICE_16\[0\].RAM16.BYTE\[2\].FLOATBUF0\[20\].Z sky130_fd_sc_hd__ebufn_2
XSLICE_16\[1\].RAM16.SLICE\[1\].RAM8.WORD\[5\].W.BYTE\[2\].B.BIT\[1\].OBUF0 SLICE_16\[1\].RAM16.SLICE\[1\].RAM8.WORD\[5\].W.BYTE\[2\].B.Q_WIRE\[1\]
+ SLICE_16\[1\].RAM16.SLICE\[1\].RAM8.WORD\[5\].W.BYTE\[2\].B.SEL0_B VGND VGND VPWR
+ VPWR SLICE_16\[1\].RAM16.BYTE\[2\].FLOATBUF0\[17\].Z sky130_fd_sc_hd__ebufn_2
XSLICE_16\[1\].RAM16.SLICE\[1\].RAM8.WORD\[3\].W.BYTE\[2\].B.BIT\[1\].genblk1.STORAGE
+ DIBUF\[17\].X SLICE_16\[1\].RAM16.SLICE\[1\].RAM8.WORD\[3\].W.BYTE\[2\].B.GCLK VGND
+ VGND VPWR VPWR SLICE_16\[1\].RAM16.SLICE\[1\].RAM8.WORD\[3\].W.BYTE\[2\].B.Q_WIRE\[1\]
+ sky130_fd_sc_hd__dlxtp_1
XSLICE_16\[1\].RAM16.SLICE\[1\].RAM8.WORD\[1\].W.BYTE\[0\].B.BIT\[0\].genblk1.STORAGE
+ DIBUF\[0\].X SLICE_16\[1\].RAM16.SLICE\[1\].RAM8.WORD\[1\].W.BYTE\[0\].B.GCLK VGND
+ VGND VPWR VPWR SLICE_16\[1\].RAM16.SLICE\[1\].RAM8.WORD\[1\].W.BYTE\[0\].B.Q_WIRE\[0\]
+ sky130_fd_sc_hd__dlxtp_1
XSLICE_16\[1\].RAM16.SLICE\[0\].RAM8.WORD\[0\].W.BYTE\[1\].B.BIT\[0\].OBUF0 SLICE_16\[1\].RAM16.SLICE\[0\].RAM8.WORD\[0\].W.BYTE\[1\].B.Q_WIRE\[0\]
+ SLICE_16\[1\].RAM16.SLICE\[0\].RAM8.WORD\[0\].W.BYTE\[1\].B.SEL0_B VGND VGND VPWR
+ VPWR SLICE_16\[1\].RAM16.BYTE\[1\].FLOATBUF0\[8\].Z sky130_fd_sc_hd__ebufn_2
XSLICE_16\[0\].RAM16.SLICE\[1\].RAM8.WORD\[7\].W.BYTE\[1\].B.BIT\[2\].OBUF0 SLICE_16\[0\].RAM16.SLICE\[1\].RAM8.WORD\[7\].W.BYTE\[1\].B.Q_WIRE\[2\]
+ SLICE_16\[0\].RAM16.SLICE\[1\].RAM8.WORD\[7\].W.BYTE\[1\].B.SEL0_B VGND VGND VPWR
+ VPWR SLICE_16\[0\].RAM16.BYTE\[1\].FLOATBUF0\[10\].Z sky130_fd_sc_hd__ebufn_2
XSLICE_16\[0\].RAM16.SLICE\[0\].RAM8.WORD\[3\].W.BYTE\[2\].B.SEL0INV SLICE_16\[0\].RAM16.SLICE\[0\].RAM8.WORD\[3\].W.BYTE\[0\].B.SEL0
+ VGND VGND VPWR VPWR SLICE_16\[0\].RAM16.SLICE\[0\].RAM8.WORD\[3\].W.BYTE\[2\].B.SEL0_B
+ sky130_fd_sc_hd__inv_1
XSLICE_16\[1\].RAM16.SLICE\[0\].RAM8.WORD\[5\].W.BYTE\[1\].B.genblk1.CLKINV SLICE_16\[1\].RAM16.SLICE\[0\].RAM8.WORD\[5\].W.BYTE\[0\].B.CLK
+ VGND VGND VPWR VPWR SLICE_16\[1\].RAM16.SLICE\[0\].RAM8.WORD\[5\].W.BYTE\[1\].B.CLK_B
+ sky130_fd_sc_hd__inv_1
XSLICE_16\[0\].RAM16.Do0_REG.OUTREG_BYTE\[0\].Do_FF\[7\] SLICE_16\[0\].RAM16.Do0_REG.CLKBUF\[0\]
+ SLICE_16\[0\].RAM16.BYTE\[0\].FLOATBUF0\[7\].Z VGND VGND VPWR VPWR Do0MUX.A0\[7\]
+ sky130_fd_sc_hd__dfxtp_1
Xfill_11_1 VGND VPWR sky130_fd_sc_hd__tapvpwrvgnd_1
Xtap_8_17 VGND VPWR sky130_fd_sc_hd__tapvpwrvgnd_1
Xtap_8_28 VGND VPWR sky130_fd_sc_hd__tapvpwrvgnd_1
Xfill_9_3 VGND VGND VPWR VPWR sky130_fd_sc_hd__decap_6
Xtap_40_9 VGND VPWR sky130_fd_sc_hd__tapvpwrvgnd_1
Xtap_33_8 VGND VPWR sky130_fd_sc_hd__tapvpwrvgnd_1
XSLICE_16\[1\].RAM16.SLICE\[1\].RAM8.WORD\[2\].W.SEL0BUF SLICE_16\[1\].RAM16.SLICE\[1\].RAM8.DEC0.SEL\[2\]
+ VGND VGND VPWR VPWR SLICE_16\[1\].RAM16.SLICE\[1\].RAM8.WORD\[2\].W.BYTE\[0\].B.SEL0
+ sky130_fd_sc_hd__clkbuf_2
XSLICE_16\[1\].RAM16.SLICE\[0\].RAM8.WORD\[6\].W.BYTE\[1\].B.BIT\[6\].genblk1.STORAGE
+ DIBUF\[14\].X SLICE_16\[1\].RAM16.SLICE\[0\].RAM8.WORD\[6\].W.BYTE\[1\].B.GCLK VGND
+ VGND VPWR VPWR SLICE_16\[1\].RAM16.SLICE\[0\].RAM8.WORD\[6\].W.BYTE\[1\].B.Q_WIRE\[6\]
+ sky130_fd_sc_hd__dlxtp_1
Xtap_27_35 VGND VPWR sky130_fd_sc_hd__tapvpwrvgnd_1
Xtap_27_24 VGND VPWR sky130_fd_sc_hd__tapvpwrvgnd_1
Xtap_27_13 VGND VPWR sky130_fd_sc_hd__tapvpwrvgnd_1
Xtap_26_7 VGND VPWR sky130_fd_sc_hd__tapvpwrvgnd_1
XSLICE_16\[1\].RAM16.SLICE\[0\].RAM8.WORD\[0\].W.BYTE\[2\].B.BIT\[7\].genblk1.STORAGE
+ DIBUF\[23\].X SLICE_16\[1\].RAM16.SLICE\[0\].RAM8.WORD\[0\].W.BYTE\[2\].B.GCLK VGND
+ VGND VPWR VPWR SLICE_16\[1\].RAM16.SLICE\[0\].RAM8.WORD\[0\].W.BYTE\[2\].B.Q_WIRE\[7\]
+ sky130_fd_sc_hd__dlxtp_1
XSLICE_16\[0\].RAM16.SLICE\[0\].RAM8.WORD\[2\].W.BYTE\[0\].B.BIT\[1\].OBUF0 SLICE_16\[0\].RAM16.SLICE\[0\].RAM8.WORD\[2\].W.BYTE\[0\].B.Q_WIRE\[1\]
+ SLICE_16\[0\].RAM16.SLICE\[0\].RAM8.WORD\[2\].W.BYTE\[0\].B.SEL0_B VGND VGND VPWR
+ VPWR SLICE_16\[0\].RAM16.BYTE\[0\].FLOATBUF0\[1\].Z sky130_fd_sc_hd__ebufn_2
XSLICE_16\[0\].RAM16.SLICE\[0\].RAM8.WORD\[6\].W.BYTE\[3\].B.BIT\[4\].OBUF0 SLICE_16\[0\].RAM16.SLICE\[0\].RAM8.WORD\[6\].W.BYTE\[3\].B.Q_WIRE\[4\]
+ SLICE_16\[0\].RAM16.SLICE\[0\].RAM8.WORD\[6\].W.BYTE\[3\].B.SEL0_B VGND VGND VPWR
+ VPWR SLICE_16\[0\].RAM16.BYTE\[3\].FLOATBUF0\[28\].Z sky130_fd_sc_hd__ebufn_2
XSLICE_16\[0\].RAM16.SLICE\[1\].RAM8.WORD\[0\].W.BYTE\[0\].B.BIT\[7\].genblk1.STORAGE
+ DIBUF\[7\].X SLICE_16\[0\].RAM16.SLICE\[1\].RAM8.WORD\[0\].W.BYTE\[0\].B.GCLK VGND
+ VGND VPWR VPWR SLICE_16\[0\].RAM16.SLICE\[1\].RAM8.WORD\[0\].W.BYTE\[0\].B.Q_WIRE\[7\]
+ sky130_fd_sc_hd__dlxtp_1
XSLICE_16\[0\].RAM16.SLICE\[0\].RAM8.WORD\[1\].W.BYTE\[2\].B.BIT\[3\].genblk1.STORAGE
+ DIBUF\[19\].X SLICE_16\[0\].RAM16.SLICE\[0\].RAM8.WORD\[1\].W.BYTE\[2\].B.GCLK VGND
+ VGND VPWR VPWR SLICE_16\[0\].RAM16.SLICE\[0\].RAM8.WORD\[1\].W.BYTE\[2\].B.Q_WIRE\[3\]
+ sky130_fd_sc_hd__dlxtp_1
XSLICE_16\[0\].RAM16.SLICE\[0\].RAM8.WORD\[7\].W.BYTE\[1\].B.BIT\[2\].genblk1.STORAGE
+ DIBUF\[10\].X SLICE_16\[0\].RAM16.SLICE\[0\].RAM8.WORD\[7\].W.BYTE\[1\].B.GCLK VGND
+ VGND VPWR VPWR SLICE_16\[0\].RAM16.SLICE\[0\].RAM8.WORD\[7\].W.BYTE\[1\].B.Q_WIRE\[2\]
+ sky130_fd_sc_hd__dlxtp_1
XSLICE_16\[1\].RAM16.SLICE\[1\].RAM8.WORD\[5\].W.BYTE\[0\].B.BIT\[6\].OBUF0 SLICE_16\[1\].RAM16.SLICE\[1\].RAM8.WORD\[5\].W.BYTE\[0\].B.Q_WIRE\[6\]
+ SLICE_16\[1\].RAM16.SLICE\[1\].RAM8.WORD\[5\].W.BYTE\[0\].B.SEL0_B VGND VGND VPWR
+ VPWR SLICE_16\[1\].RAM16.BYTE\[0\].FLOATBUF0\[6\].Z sky130_fd_sc_hd__ebufn_2
XSLICE_16\[1\].RAM16.SLICE\[0\].RAM8.WORD\[3\].W.BYTE\[2\].B.BIT\[0\].OBUF0 SLICE_16\[1\].RAM16.SLICE\[0\].RAM8.WORD\[3\].W.BYTE\[2\].B.Q_WIRE\[0\]
+ SLICE_16\[1\].RAM16.SLICE\[0\].RAM8.WORD\[3\].W.BYTE\[2\].B.SEL0_B VGND VGND VPWR
+ VPWR SLICE_16\[1\].RAM16.BYTE\[2\].FLOATBUF0\[16\].Z sky130_fd_sc_hd__ebufn_2
XSLICE_16\[0\].RAM16.SLICE\[0\].RAM8.WORD\[4\].W.BYTE\[3\].B.genblk1.CG SLICE_16\[0\].RAM16.SLICE\[0\].RAM8.WORD\[4\].W.BYTE\[3\].B.CLK_B
+ SLICE_16\[0\].RAM16.SLICE\[0\].RAM8.WORD\[4\].W.BYTE\[3\].B.WE0_WIRE VGND VGND VPWR
+ VPWR SLICE_16\[0\].RAM16.SLICE\[0\].RAM8.WORD\[4\].W.BYTE\[3\].B.GCLK sky130_fd_sc_hd__dlclkp_1
XSLICE_16\[0\].RAM16.SLICE\[0\].RAM8.WORD\[5\].W.BYTE\[1\].B.BIT\[1\].OBUF0 SLICE_16\[0\].RAM16.SLICE\[0\].RAM8.WORD\[5\].W.BYTE\[1\].B.Q_WIRE\[1\]
+ SLICE_16\[0\].RAM16.SLICE\[0\].RAM8.WORD\[5\].W.BYTE\[1\].B.SEL0_B VGND VGND VPWR
+ VPWR SLICE_16\[0\].RAM16.BYTE\[1\].FLOATBUF0\[9\].Z sky130_fd_sc_hd__ebufn_2
XSLICE_16\[0\].RAM16.SLICE\[1\].RAM8.WORD\[0\].W.BYTE\[0\].B.CGAND SLICE_16\[0\].RAM16.SLICE\[1\].RAM8.WORD\[0\].W.BYTE\[0\].B.SEL0
+ SLICE_16\[0\].RAM16.SLICE\[1\].RAM8.WE0_buf\[0\] VGND VGND VPWR VPWR SLICE_16\[0\].RAM16.SLICE\[1\].RAM8.WORD\[0\].W.BYTE\[0\].B.WE0_WIRE
+ sky130_fd_sc_hd__and2_1
Xtap_13_15 VGND VPWR sky130_fd_sc_hd__tapvpwrvgnd_1
Xfill_7_0 VGND VPWR sky130_fd_sc_hd__tapvpwrvgnd_1
XSLICE_16\[1\].RAM16.SLICE\[1\].RAM8.WORD\[6\].W.BYTE\[3\].B.BIT\[1\].genblk1.STORAGE
+ DIBUF\[25\].X SLICE_16\[1\].RAM16.SLICE\[1\].RAM8.WORD\[6\].W.BYTE\[3\].B.GCLK VGND
+ VGND VPWR VPWR SLICE_16\[1\].RAM16.SLICE\[1\].RAM8.WORD\[6\].W.BYTE\[3\].B.Q_WIRE\[1\]
+ sky130_fd_sc_hd__dlxtp_1
XSLICE_16\[1\].RAM16.SLICE\[1\].RAM8.WORD\[3\].W.CLKBUF SLICE_16\[1\].RAM16.SLICE\[1\].RAM8.CLKBUF.X
+ VGND VGND VPWR VPWR SLICE_16\[1\].RAM16.SLICE\[1\].RAM8.WORD\[3\].W.BYTE\[0\].B.CLK
+ sky130_fd_sc_hd__clkbuf_4
Xtap_13_26 VGND VPWR sky130_fd_sc_hd__tapvpwrvgnd_1
Xtap_38_34 VGND VPWR sky130_fd_sc_hd__tapvpwrvgnd_1
Xtap_38_23 VGND VPWR sky130_fd_sc_hd__tapvpwrvgnd_1
Xtap_38_12 VGND VPWR sky130_fd_sc_hd__tapvpwrvgnd_1
XSLICE_16\[1\].RAM16.SLICE\[1\].RAM8.WORD\[4\].W.BYTE\[1\].B.BIT\[0\].genblk1.STORAGE
+ DIBUF\[8\].X SLICE_16\[1\].RAM16.SLICE\[1\].RAM8.WORD\[4\].W.BYTE\[1\].B.GCLK VGND
+ VGND VPWR VPWR SLICE_16\[1\].RAM16.SLICE\[1\].RAM8.WORD\[4\].W.BYTE\[1\].B.Q_WIRE\[0\]
+ sky130_fd_sc_hd__dlxtp_1
Xtap_31_5 VGND VPWR sky130_fd_sc_hd__tapvpwrvgnd_1
Xtap_24_4 VGND VPWR sky130_fd_sc_hd__tapvpwrvgnd_1
XSLICE_16\[0\].RAM16.SLICE\[0\].RAM8.DEC0.AND5 SLICE_16\[0\].RAM16.SLICE\[0\].RAM8.DEC0.A_buf\[1\]
+ SLICE_16\[0\].RAM16.SLICE\[0\].RAM8.DEC0.A_buf\[0\] SLICE_16\[0\].RAM16.SLICE\[0\].RAM8.DEC0.A_buf\[2\]
+ SLICE_16\[0\].RAM16.SLICE\[0\].RAM8.DEC0.EN_buf VGND VGND VPWR VPWR SLICE_16\[0\].RAM16.SLICE\[0\].RAM8.DEC0.SEL\[5\]
+ sky130_fd_sc_hd__and4b_2
XSLICE_16\[1\].RAM16.Do0_REG.OUTREG_BYTE\[0\].DIODE\[2\] SLICE_16\[1\].RAM16.BYTE\[0\].FLOATBUF0\[2\].Z
+ VGND VGND VPWR VPWR sky130_fd_sc_hd__diode_2